# File generated by Flopy version 3.3.7 on 06/20/2023 at 13:15:06.
BEGIN options
END options

BEGIN timing
  TDIS6  pleasant.tdis
END timing

BEGIN models
  gwf6  pleasant.nam  pleasant
END models

BEGIN exchanges
END exchanges

BEGIN solutiongroup  1
  ims6  pleasant.ims  pleasant
END solutiongroup  1

