# File generated by Flopy version 3.3.7 on 06/20/2023 at 13:15:06.
BEGIN options
END options

BEGIN dimensions
  MAXBOUND  572
END dimensions

BEGIN period  1
    OPEN/CLOSE  'data/chd_000.dat'
END period  1

