# File generated by Flopy version 3.3.7 on 06/20/2023 at 13:15:06.
BEGIN options
END options

BEGIN griddata
  icelltype
    CONSTANT  1
  k  LAYERED
    OPEN/CLOSE  'data/k_000.dat'  FACTOR  1.0
    OPEN/CLOSE  'data/k_001.dat'  FACTOR  1.0
    OPEN/CLOSE  'data/k_002.dat'  FACTOR  1.0
  k33  LAYERED
    OPEN/CLOSE  'data/k33_000.dat'  FACTOR  1.0
    OPEN/CLOSE  'data/k33_001.dat'  FACTOR  1.0
    OPEN/CLOSE  'data/k33_002.dat'  FACTOR  1.0
END griddata

