# File generated by Flopy version 3.3.7 on 06/20/2023 at 13:15:06.
BEGIN griddata
  strt  LAYERED
    OPEN/CLOSE  'data/top.dat'  FACTOR  1.0
    OPEN/CLOSE  'data/top.dat'  FACTOR  1.0
    OPEN/CLOSE  'data/top.dat'  FACTOR  1.0
END griddata

