# File generated by Flopy version 3.3.7 on 06/20/2023 at 13:15:06.
BEGIN options
  BUDGET  FILEOUT  pleasant.cbc
  HEAD  FILEOUT  pleasant.hds
END options

BEGIN period  1
  SAVE  head  all
  SAVE  budget  all
END period  1

