# File generated by Flopy version 3.3.7 on 06/20/2023 at 13:15:06.
BEGIN options
  COMPLEXITY  moderate
END options

BEGIN nonlinear
  OUTER_DVCLOSE       0.00100000
END nonlinear

