# File generated by Flopy version 3.3.7 on 06/20/2023 at 13:15:06.
BEGIN options
  SAVE_FLOWS
END options

BEGIN packages
  OC6  pleasant.oc  oc
  DIS6  pleasant.dis  dis
  NPF6  pleasant.npf  npf
  IC6  pleasant.ic  ic
  CHD6  pleasant.chd  chd_0
  RCH6  pleasant.rcha  rcha_0
  LAK6  pleasant.lak  lak_0
  SFR6  pleasant.sfr  sfr_0
END packages

