# File generated by Flopy version 3.3.7 on 06/20/2023 at 13:15:06.
BEGIN options
  READASARRAYS
END options

BEGIN period  1
  irch
    OPEN/CLOSE  'data/irch.dat'  FACTOR  1
  recharge
    OPEN/CLOSE  'data/rch_000.dat'  FACTOR  1.0
END period  1

