# File generated by Flopy version 3.3.7 on 06/20/2023 at 13:15:06.
BEGIN options
  STAGE  FILEOUT  pleasant.sfr.stage.bin
  BUDGET  FILEOUT  pleasant.sfr.cbc
  UNIT_CONVERSION   86400.00000000
END options

BEGIN dimensions
  NREACHES  26
END dimensions

BEGIN packagedata
  1  1 26 59      23.84146881      50.00000000  9.99999975E-05     297.03527832       1.00000000       1.00000000  0.03700000047683716  1       1.00000000  0
  2  1 26 60      21.05265999      50.00000000  9.99999975E-05     297.03527832       1.00000000       1.00000000  0.03700000047683716  2       1.00000000  0
  3  1 25 60      46.30415726      50.00000000  9.99999975E-05     297.03527832       1.00000000       1.00000000  0.03700000047683716  2       1.00000000  0
  4  1 25 61       3.41158986      50.00000000  9.99999975E-05     297.03527832       1.00000000       1.00000000  0.03700000047683716  2       1.00000000  0
  5  1 24 61      45.87263107      50.00000000  9.99999975E-05     297.03527832       1.00000000       1.00000000  0.03700000047683716  2       1.00000000  0
  6  1 24 62      33.94736481      50.00000000  9.99999975E-05     297.03527832       1.00000000       1.00000000  0.03700000047683716  2       1.00000000  0
  7  1 23 62      11.01031113      50.00000000  9.99999975E-05     297.03527832       1.00000000       1.00000000  0.03700000047683716  2       1.00000000  0
  8  1 23 63      44.07096481      50.00000000  9.99999975E-05     297.03527832       1.00000000       1.00000000  0.03700000047683716  2       1.00000000  0
  9  1 23 64      41.03410721      50.00000000  9.99999975E-05     297.03527832       1.00000000       1.00000000  0.03700000047683716  2       1.00000000  0
  10  1 23 65      40.20994568      50.00000000  9.99999975E-05     297.03527832       1.00000000       1.00000000  0.03700000047683716  2       1.00000000  0
  11  1 23 66      40.00832748      50.00000000  9.99999975E-05     297.03527832       1.00000000       1.00000000  0.03700000047683716  2       1.00000000  0
  12  1 23 67      40.52020264      50.00000000  9.99999975E-05     297.03527832       1.00000000       1.00000000  0.03700000047683716  2       1.00000000  0
  13  1 23 68      41.05127335      50.00000000  9.99999975E-05     297.03527832       1.00000000       1.00000000  0.03700000047683716  2       1.00000000  0
  14  1 23 69      44.89336395      50.00000000  9.99999975E-05     297.03527832       1.00000000       1.00000000  0.03700000047683716  2       1.00000000  0
  15  1 23 70       4.85870552      50.00000000  9.99999975E-05     297.03527832       1.00000000       1.00000000  0.03700000047683716  2       1.00000000  0
  16  1 24 70      53.56507111      50.00000000       0.00100000     296.90447998       1.00000000       1.00000000  0.03700000047683716  1       1.00000000  0
  17  1 53 34      12.59219456      50.00000000  9.99999975E-05     296.83129883       1.00000000       1.00000000  0.03700000047683716  1       1.00000000  0
  18  1 54 34      40.10488129      50.00000000  9.99999975E-05     296.26577759       1.00000000       1.00000000  0.03700000047683716  2       1.00000000  0
  19  1 55 34      40.10488129      50.00000000  9.99999975E-05     295.49636841       1.00000000       1.00000000  0.03700000047683716  2       1.00000000  0
  20  1 56 34      40.10488129      50.00000000  9.99999975E-05     294.14431763       1.00000000       1.00000000  0.03700000047683716  2       1.00000000  0
  21  1 57 34      39.49021149      50.00000000  9.99999975E-05     294.14431763       1.00000000       1.00000000  0.03700000047683716  2       1.00000000  0
  22  1 58 35      44.14860153      50.00000000  9.99999975E-05     294.14431763       1.00000000       1.00000000  0.03700000047683716  2       1.00000000  0
  23  1 59 35      37.78926086      50.00000000  9.99999975E-05     294.14431763       1.00000000       1.00000000  0.03700000047683716  2       1.00000000  0
  24  1 59 36      24.06463242      50.00000000  9.99999975E-05     294.14431763       1.00000000       1.00000000  0.03700000047683716  2       1.00000000  0
  25  1 60 36      28.37671089      50.00000000  9.99999975E-05     294.14431763       1.00000000       1.00000000  0.03700000047683716  2       1.00000000  0
  26  1 60 37      33.47718048      50.00000000       0.00100000     294.14431763       1.00000000       1.00000000  0.03700000047683716  1       1.00000000  0
END packagedata

BEGIN connectiondata
  1  -2
  2  -3  1
  3  -4  2
  4  -5  3
  5  -6  4
  6  -7  5
  7  -8  6
  8  -9  7
  9  -10  8
  10  -11  9
  11  -12  10
  12  -13  11
  13  -14  12
  14  -15  13
  15  -16  14
  16  15
  17  -18
  18  -19  17
  19  -20  18
  20  -21  19
  21  -22  20
  22  -23  21
  23  -24  22
  24  -25  23
  25  -26  24
  26  25
END connectiondata

